/*--------------------------------*- C++ -*----------------------------------*\
  =========                 |
| \\      /  F ield         | OpenFOAM: The Open Source CFD Toolbox           |
|  \\    /   O peration     | Version:  6.x                                   |
|   \\  /    A nd           | Website:  https://openfoam.org                  |
|    \\/     M anipulation  |                                                 |
\*---------------------------------------------------------------------------*/
FoamFile
{
    version     2.0;
    format      ascii;
    class       polyBoundaryMesh;
    object      boundary;
}
// * * * * * * * * * * * * * * * * * * * * * * * * * * * * * * * * * * * * * //

6
(
    top
    {
        type            patch;
        nFaces          100;
        startFace       31387;
    }
    right
    {
        type            patch;
        nFaces          100;
        startFace       31487;
    }
    bottom
    {
        type            patch;
        nFaces          100;
        startFace       31587;
    }
    left
    {
        type            patch;
        nFaces          100;
        startFace       31687;
    }
    front
    {
        type            empty;
        nFaces          21058;
        startFace       31787;
    }
    back
    {
        type            empty;
        nFaces          21058;
        startFace       52845;
    }
)

// ************************************************************************* //
