/*--------------------------------*- C++ -*----------------------------------*\
  =========                 |
| \\      /  F ield         | OpenFOAM: The Open Source CFD Toolbox           |
|  \\    /   O peration     | Version:  6.x                                   |
|   \\  /    A nd           | Website:  https://openfoam.org                  |
|    \\/     M anipulation  |                                                 |
\*---------------------------------------------------------------------------*/
FoamFile
{
    version     2.0;
    format      ascii;
    class       dictionary;
    object      extrudeMeshDict;
}
// * * * * * * * * * * * * * * * * * * * * * * * * * * * * * * * * * * * * * //

constructFrom patch;

sourceCase ".";
sourcePatches (front);

// If construct from patch: patch to use for back (can be same as sourcePatch)
exposedPatchName back;

// Flip surface normals before usage. Valid only for extrude from surface or
// patch.
flipNormals false;

//- Linear extrusion in point-normal direction
extrudeModel        linearNormal;

linearNormalCoeffs
{
    thickness       1;
}

// Do front and back need to be merged? Usually only makes sense for 360
// degree wedges.
mergeFaces false;   //true;

// Merge small edges. Fraction of bounding box.
mergeTol 0;

// * * * * * * * * * * * * * * * * * * * * * * * * * * * * * * * * * * * * * //
