/*--------------------------------*- C++ -*----------------------------------*\
  =========                 |
| \\      /  F ield         | OpenFOAM: The Open Source CFD Toolbox           |
|  \\    /   O peration     | Version:  6.x                                   |
|   \\  /    A nd           | Website:  https://openfoam.org                  |
|    \\/     M anipulation  |                                                 |
\*---------------------------------------------------------------------------*/
FoamFile
{
    version     2.0;
    format      ascii;
    class       dictionary;
    object      controlDict;
}
// * * * * * * * * * * * * * * * * * * * * * * * * * * * * * * * * * * * * * //

application     icoFoam;

startFrom       startTime;

startTime       0;

stopAt          endTime;

endTime         50;

deltaT          0.01;

writeControl    runTime;

writeInterval   1;

purgeWrite      0;

writeFormat     ascii;

writePrecision  8;

writeCompression off;

timeFormat      general;

timePrecision   6;

runTimeModifiable true;

// ************************************************************************* //

functions
{

///////////////////////////////////////////////////////////////////////////

minmaxdomain
{
    type fieldMinMax;

    functionObjectLibs ("libfieldFunctionObjects.so");

    enabled true; //true or false

    mode component;

    writeControl timeStep;
    writeInterval 1;

    log true;

    fields (p U);
}

///////////////////////////////////////////////////////////////////////////

///////////////////////////////////////////////////////////////////////////
/*
residuals
{
	functionObjectLibs ("libutilityFunctionObjects.so");

	type residuals;

	enabled true; 

	writeControl timeStep;
	writeInterval 1;

	fields (p U);
}
*/
///////////////////////////////////////////////////////////////////////////

};
