/*--------------------------------*- C++ -*----------------------------------*\
| =========                 |                                                 |
| \\      /  F ield         | OpenFOAM: The Open Source CFD Toolbox           |
|  \\    /   O peration     | Version:  v2112                                 |
|   \\  /    A nd           | Website:  www.openfoam.com                      |
|    \\/     M anipulation  |                                                 |
\*---------------------------------------------------------------------------*/
FoamFile
{
    version     2.0;
    format      ascii;
    class       volScalarField;
    object      epsilon;
}
// * * * * * * * * * * * * * * * * * * * * * * * * * * * * * * * * * * * * * //

dimensions      [0 2 -3 0 0 0 0];

internalField   uniform 14.855;

boundaryField
{
    inlet_one
    {
        type            fixedValue;
        value           uniform 14.855;
    }

    inlet_two
    {
        type            fixedValue;
        value           uniform 14.855;
    }

    outlet
    {
        type            zeroGradient;
    }

    walls
    {
        type            epsilonWallFunction;
        value           uniform 14.855;
    }
}


// ************************************************************************* //
