/*--------------------------------*- C++ -*----------------------------------*\
  =========                 |
| \\      /  F ield         | OpenFOAM: The Open Source CFD Toolbox           |
|  \\    /   O peration     | Version:  6.x                                   |
|   \\  /    A nd           | Website:  https://openfoam.org                  |
|    \\/     M anipulation  |                                                 |
\*---------------------------------------------------------------------------*/
FoamFile
{
    version     2.0;
    format      ascii;
    class       dictionary;
    object      fvSchemes;
}
// * * * * * * * * * * * * * * * * * * * * * * * * * * * * * * * * * * * * * //

ddtSchemes
{
    default         Euler;
    //default         steadyState;
}

gradSchemes
{
    default         Gauss linear;
    grad(T)         Gauss linear;
    //grad(T)         Gauss linear cellMDLimited 1;
    //grad(T)         leastSquares;
}

divSchemes
{
    default         none;
}

laplacianSchemes
{
    default         none;
    laplacian(DT,T) Gauss linear orthogonal;
    //laplacian(DT,T) Gauss linear corrected;
    //laplacian(DT,T) Gauss linear uncorrected;

/*
corrected
faceCorrected
limited
linearFit
orthogonal
quadraticFit
uncorrected
*/
}

interpolationSchemes
{
    default         linear;
}

snGradSchemes
{
    default         orthogonal;
    //default         corrected;
    //default         uncorrected;
}

// ************************************************************************* //
