/*--------------------------------*- C++ -*----------------------------------*\
  =========                 |
| \\      /  F ield         | OpenFOAM: The Open Source CFD Toolbox           |
|  \\    /   O peration     | Version:  6.x                                   |
|   \\  /    A nd           | Website:  https://openfoam.org                  |
|    \\/     M anipulation  |                                                 |
\*---------------------------------------------------------------------------*/
FoamFile
{
    version     2.0;
    format      ascii;
    class       dictionary;
    object      blockMeshDict;
}
// * * * * * * * * * * * * * * * * * * * * * * * * * * * * * * * * * * * * * //

convertToMeters 1;

vertices        
(
   ( 0.0 0.0 0.0)
   ( 1.0 0.0 0.0)
   ( 1.0 0.0 1.0)
   ( 0.0 0.0 1.0)
   ( 0.0 1.0 0.0)
   ( 1.0 1.0 0.0)
   ( 1.0 1.0 1.0)
   ( 0.0 1.0 1.0)
);

blocks          
(
    hex (0 1 5 4 3 2 6 7)   (100 100 1) simpleGrading (1 1 1)
);

edges           
(
);

patches         
(
    patch left 
    (
        (0 4 7 3)
    )
    patch right 
    (
        (1 5 6 2)
    )
    empty back
    (
        (0 1 5 4)
    )
    empty front
    (
        (3 2 6 7)
    )
    patch bottom
    (
        (0 1 2 3)
    )
    patch top
    (
        (4 5 6 7)
    )
);

mergePatchPairs
(
);

// ************************************************************************* //
